&cam_inparm
 fincl2		= 'QREFHT','TREFHTMN','TREFHTMX','TREFHT','PRECT','PRECC','PRECSC','PRECSL','PSL','T','Z3','U','V','PS','TS','SST','PHIS','CLDTOT','RHREFHT','SNOWHLND','SNOWHICE','LHFLX','SHFLX','FLDS','FLNS','FSNS','FSDS','FLUT','RELHUM','Q','QREFHT','OMEGA'
 fincl3		= 'U850:I','V850:I','T850:I','Q850:I','OMEGA850:I','U:I','V:I','T:I','PS:I','PSL:I','Q:I','PHIS:I'
 fincl4		= 'PRECT','LHFLX','SHFLX','FLDS','FLNS','FSNS','PRECC','PRECSC','PRECSL','FLDSC','FSDSC','FSNSC','SWCF','CLDTOT','SOLLD','SOLSD'
 fincl5		= 'TREFHT:I','QREFHT:I','TS:I','SST:I','PS:I'
 mfilt		= 1,73,292,2920,2920
 nhtfrq		= 0,-24,-6,-3,-3
/
